6OIM
  DSViewer          3D                             0

 40 42  0  0  0  0  0  0  0  0999 V2000
   -3.3340    0.9460    3.0190 P   0  0
   -4.2520    0.1030    2.1750 O   0  5
   -2.6650    2.0720    2.3090 O   0  0
   -2.4040    0.1220    3.8770 O   0  5
   -4.3010    1.6580    4.1150 O   0  0
   -4.9010    3.1600    4.0340 P   0  0
   -5.6740    3.3240    2.7520 O   0  0
   -3.8420    4.1730    4.3940 O   0  5
   -5.9330    3.1130    5.2670 O   0  0
   -7.0100    2.1750    5.2520 C   0  0
   -8.1740    2.6930    6.0820 C   0  0  1  0  0  0
   -7.7730    2.7670    7.4510 O   0  0
   -8.6030    4.0970    5.6910 C   0  0  1  0  0  0
  -10.0320    4.2020    5.7870 O   0  0
   -7.9220    5.0050    6.6960 C   0  0  1  0  0  0
   -8.6700    6.1830    6.9940 O   0  0
   -7.8480    4.1140    7.9160 C   0  0  2  0  0  0
   -6.6620    4.3000    8.7680 N   0  0
   -5.3700    4.2520    8.4070 C   0  0
   -4.5660    4.4220    9.4830 N   0  0
   -5.3640    4.5530   10.5610 C   0  0
   -5.1880    4.7550   12.0120 C   0  0
   -4.0450    4.8340   12.5100 O   0  0
   -6.2940    4.8360   12.7740 N   0  0
   -7.5410    4.7410   12.2640 C   0  0
   -8.6200    4.8360   13.0800 N   0  0
   -7.7730    4.5540   10.9440 N   0  0
   -6.7430    4.4620   10.0790 C   0  0
   -7.3406    2.0240    4.2244 H   0  0
   -6.6667    1.2272    5.6667 H   0  0
   -9.0207    2.0133    5.9865 H   0  0
   -8.2703    4.3299    4.6795 H   0  0
  -10.4788    3.5058    5.1403 H   0  0
   -6.9204    5.2666    6.3547 H   0  0
   -8.8139    6.7386    6.1147 H   0  0
   -8.7496    4.2421    8.5150 H   0  0
   -5.0167    4.0974    7.3875 H   0  0
   -8.4846    4.9866   14.1307 H   0  0
   -9.6067    4.7604   12.6732 H   0  0
   -8.7783    4.4788   10.5852 H   0  0
  1  2  1  0  0  0
  1  3  2  0  0  0
  1  4  1  0  0  0
  1  5  1  0  0  0
  5  6  1  0  0  0
  6  7  2  0  0  0
  6  8  1  0  0  0
  6  9  1  0  0  0
  9 10  1  0  0  0
 10 11  1  0  0  0
 11 12  1  0  0  0
 11 13  1  0  0  0
 12 17  1  0  0  0
 13 14  1  0  0  0
 13 15  1  0  0  0
 15 16  1  0  0  0
 15 17  1  0  0  0
 17 18  1  0  0  0
 18 19  1  0  0  0
 18 28  1  0  0  0
 19 20  2  0  0  0
 20 21  1  0  0  0
 21 22  1  0  0  0
 21 28  2  0  0  0
 22 23  2  0  0  0
 22 24  1  0  0  0
 24 25  2  0  0  0
 25 26  1  0  0  0
 25 27  1  0  0  0
 27 28  1  0  0  0
 10 29  1  0  0  0
 10 30  1  0  0  0
 11 31  1  0  0  0
 13 32  1  0  0  0
 14 33  1  0  0  0
 15 34  1  0  0  0
 16 35  1  0  0  0
 17 36  1  0  0  0
 19 37  1  0  0  0
 26 38  1  0  0  0
 26 39  1  0  0  0
 27 40  1  0  0  0
M  CHG  3   2  -1   4  -1   8  -1
M  END
> <Resolution>
1.65

$$$$
