@<TRIPOS>MOLECULE
MOL
   85    89     1     0     0
SMALL
No Charge or Current Charge


@<TRIPOS>ATOM
      1 N           -3.6520    -5.0930     2.8750 n3         0 MOL       0.000000
      2 CA          -4.5140    -4.0220     2.3980 c3         0 MOL       0.000000
      3 HA          -3.8590    -3.2410     2.0100 h1         0 MOL       0.000000
      4 CB          -5.4320    -4.5450     1.2880 c3         0 MOL       0.000000
      5 H6          -6.1470    -5.2610     1.6950 h1         0 MOL       0.000000
      6 H7          -4.8380    -5.0870     0.5530 h1         0 MOL       0.000000
      7 SG          -6.3440    -3.2600     0.4090 ss         0 MOL       0.000000
      8 C           -5.3300    -3.4490     3.5570 c          0 MOL       0.000000
      9 O           -5.9260    -4.1970     4.3370 o          0 MOL       0.000000
     10 C11         -2.6100    -7.0640    -0.3710 c3         0 MOL       0.000000
     11 C12         -1.9850    -6.5260    -1.6670 c3         0 MOL       0.000000
     12 C13         -2.5410    -5.1470    -2.0200 c3         0 MOL       0.000000
     13 N14         -2.1280    -4.1450    -1.0110 n          0 MOL       0.000000
     14 C15         -2.9190    -3.1270    -0.6910 c          0 MOL       0.000000
     15 O16         -2.5630    -2.3050     0.1540 o          0 MOL       0.000000
     16 C17         -4.2770    -2.9590    -1.3690 c3         0 MOL       0.000000
     17 C18         -5.3640    -2.1680    -0.6430 c3         0 MOL       0.000000
     18 C19         -0.8220    -4.2890    -0.3370 c3         0 MOL       0.000000
     19 C20          0.1210    -5.1600    -1.1490 c3         0 MOL       0.000000
     20 N21         -0.5160    -6.4570    -1.5220 nh         0 MOL       0.000000
     21 C22          0.2320    -7.6550    -1.5860 cc         0 MOL       0.000000
     22 N23         -0.4850    -8.7940    -1.5410 nd         0 MOL       0.000000
     23 C24          0.0880   -10.0030    -1.5640 c          0 MOL       0.000000
     24 O25         -0.6060   -11.0170    -1.5250 o          0 MOL       0.000000
     25 N26          1.4680   -10.1120    -1.6350 n          0 MOL       0.000000
     26 C27          2.0470   -11.3780    -1.6480 ca         0 MOL       0.000000
     27 C28          2.3470   -11.9760    -2.8600 ca         0 MOL       0.000000
     28 C29          2.0370   -11.2480    -4.1650 c3         0 MOL       0.000000
     29 C30          2.9240   -13.2400    -2.8570 ca         0 MOL       0.000000
     30 C31          3.1780   -13.8590    -1.6380 ca         0 MOL       0.000000
     31 N32          2.8820   -13.2670    -0.4920 nb         0 MOL       0.000000
     32 C33          2.3200   -12.0470    -0.4540 ca         0 MOL       0.000000
     33 C34          2.0060   -11.4200     0.9130 c3         0 MOL       0.000000
     34 C35          0.9860   -12.2700     1.6830 c3         0 MOL       0.000000
     35 C36          3.3030   -11.2870     1.7110 c3         0 MOL       0.000000
     36 C37          2.2580    -8.9660    -1.6800 ca         0 MOL       0.000000
     37 N38          3.5950    -9.0860    -1.7440 nb         0 MOL       0.000000
     38 C39          1.6420    -7.7170    -1.6560 ca         0 MOL       0.000000
     39 C40          2.4670    -6.5910    -1.7080 ca         0 MOL       0.000000
     40 C41          3.8540    -6.7420    -1.7820 ca         0 MOL       0.000000
     41 F42          4.6580    -5.6630    -1.8360 f          0 MOL       0.000000
     42 C43          4.4080    -8.0240    -1.7950 cp         0 MOL       0.000000
     43 C44          5.7890    -8.2170    -1.8650 cp         0 MOL       0.000000
     44 C45          6.6350    -7.6600    -0.8950 ca         0 MOL       0.000000
     45 F46          6.1440    -6.9310     0.1290 f          0 MOL       0.000000
     46 C47          8.0110    -7.8500    -0.9680 ca         0 MOL       0.000000
     47 C48          8.5500    -8.6020    -2.0050 ca         0 MOL       0.000000
     48 C49          7.7190    -9.1620    -2.9660 ca         0 MOL       0.000000
     49 C50          6.3430    -8.9750    -2.9010 ca         0 MOL       0.000000
     50 O51          5.5560    -9.5360    -3.8560 oh         0 MOL       0.000000
     51 H8          -2.1940    -8.0460    -0.1470 hc         0 MOL       0.000000
     52 H9          -3.6900    -7.1470    -0.4950 hc         0 MOL       0.000000
     53 H10         -2.3900    -6.3810     0.4500 hc         0 MOL       0.000000
     54 H11         -2.2220    -7.2140    -2.4780 h1         0 MOL       0.000000
     55 H12         -2.1630    -4.8480    -2.9980 h1         0 MOL       0.000000
     56 H13         -3.6290    -5.1970    -2.0510 h1         0 MOL       0.000000
     57 H14         -4.1010    -2.4620    -2.3230 hc         0 MOL       0.000000
     58 H15         -4.6730    -3.9590    -1.5480 hc         0 MOL       0.000000
     59 H16         -4.8970    -1.4000    -0.0260 h1         0 MOL       0.000000
     60 H17         -6.0170    -1.6970    -1.3780 h1         0 MOL       0.000000
     61 H18         -0.3760    -3.3020    -0.2120 h1         0 MOL       0.000000
     62 H19         -0.9750    -4.7460     0.6410 h1         0 MOL       0.000000
     63 H20          0.3990    -4.6280    -2.0590 h1         0 MOL       0.000000
     64 H21          1.0140    -5.3620    -0.5580 h1         0 MOL       0.000000
     65 H22          2.3400   -11.8680    -5.0080 hc         0 MOL       0.000000
     66 H23          2.5830   -10.3050    -4.1940 hc         0 MOL       0.000000
     67 H24          0.9670   -11.0500    -4.2260 hc         0 MOL       0.000000
     68 H25          3.1730   -13.7380    -3.7940 ha         0 MOL       0.000000
     69 H26          3.6300   -14.8510    -1.6260 h4         0 MOL       0.000000
     70 H27          1.5870   -10.4260     0.7560 hc         0 MOL       0.000000
     71 H28          0.7800   -11.8060     2.6470 hc         0 MOL       0.000000
     72 H29          1.3910   -13.2700     1.8410 hc         0 MOL       0.000000
     73 H30          0.0620   -12.3390     1.1090 hc         0 MOL       0.000000
     74 H31          3.0880   -10.8430     2.6830 hc         0 MOL       0.000000
     75 H32          4.0010   -10.6500     1.1670 hc         0 MOL       0.000000
     76 H33          3.7460   -12.2730     1.8530 hc         0 MOL       0.000000
     77 H34          2.0280    -5.5930    -1.6910 ha         0 MOL       0.000000
     78 H35          8.6640    -7.4110    -0.2140 ha         0 MOL       0.000000
     79 H36          9.6280    -8.7530    -2.0640 ha         0 MOL       0.000000
     80 H37          8.1480    -9.7520    -3.7760 ha         0 MOL       0.000000
     81 H38          4.8770   -10.1980    -3.4060 ho         0 MOL       0.000000
     82 HN          -4.2510    -5.8710     3.3010 hn         0 MOL       0.000000
     83 O83         -4.4130    -2.3330     3.9620 oh         0 MOL       0.000000
     84 H84         -3.4820    -2.7290     4.2420 ho         0 MOL       0.000000
     85 H85         -2.9850    -4.7100     3.6190 hn         0 MOL       0.000000
@<TRIPOS>BOND
     1     1     2 1   
     2     1    82 1   
     3     1    85 1   
     4     2     3 1   
     5     2     4 1   
     6     2     8 1   
     7     4     5 1   
     8     4     6 1   
     9     4     7 1   
    10     7    17 1   
    11     8     9 2   
    12     8    83 1   
    13    10    11 1   
    14    10    51 1   
    15    10    52 1   
    16    10    53 1   
    17    11    12 1   
    18    11    20 1   
    19    11    54 1   
    20    12    13 1   
    21    12    55 1   
    22    12    56 1   
    23    13    14 1   
    24    13    18 1   
    25    14    15 2   
    26    14    16 1   
    27    16    17 1   
    28    16    57 1   
    29    16    58 1   
    30    17    59 1   
    31    17    60 1   
    32    18    19 1   
    33    18    61 1   
    34    18    62 1   
    35    19    20 1   
    36    19    63 1   
    37    19    64 1   
    38    20    21 1   
    39    21    22 2   
    40    21    38 1   
    41    22    23 1   
    42    23    24 2   
    43    23    25 1   
    44    25    26 1   
    45    25    36 1   
    46    26    27 ar  
    47    26    32 ar  
    48    27    28 1   
    49    27    29 ar  
    50    28    65 1   
    51    28    66 1   
    52    28    67 1   
    53    29    30 ar  
    54    29    68 1   
    55    30    31 ar  
    56    30    69 1   
    57    31    32 ar  
    58    32    33 1   
    59    33    34 1   
    60    33    35 1   
    61    33    70 1   
    62    34    71 1   
    63    34    72 1   
    64    34    73 1   
    65    35    74 1   
    66    35    75 1   
    67    35    76 1   
    68    36    37 ar  
    69    36    38 ar  
    70    37    42 ar  
    71    38    39 ar  
    72    39    40 ar  
    73    39    77 1   
    74    40    41 1   
    75    40    42 ar  
    76    42    43 1   
    77    43    44 ar  
    78    43    49 ar  
    79    44    45 1   
    80    44    46 ar  
    81    46    47 ar  
    82    46    78 1   
    83    47    48 ar  
    84    47    79 1   
    85    48    49 ar  
    86    48    80 1   
    87    49    50 1   
    88    50    81 1   
    89    83    84 1   
@<TRIPOS>SUBSTRUCTURE
     1 MOL         1 TEMP              0 ****  ****    0 ROOT
