@<TRIPOS>MOLECULE
GDP
   40    42     1     0     0
SMALL
bcc


@<TRIPOS>ATOM
      1 P1          -3.3340     0.9460     3.0190 p5         1 GDP       1.396900
      2 O1          -4.2520     0.1030     2.1750 o          1 GDP      -0.885167
      3 O2          -2.6650     2.0720     2.3090 o          1 GDP      -0.885167
      4 O3          -2.4040     0.1220     3.8770 o          1 GDP      -0.885167
      5 O4          -4.3010     1.6580     4.1150 os         1 GDP      -0.734800
      6 P2          -4.9010     3.1600     4.0340 p5         1 GDP       1.652800
      7 O5          -5.6740     3.3240     2.7520 o          1 GDP      -0.690500
      8 O6          -3.8420     4.1730     4.3940 o          1 GDP      -0.690500
      9 O7          -5.9330     3.1130     5.2670 os         1 GDP      -0.624200
     10 C1          -7.0100     2.1750     5.2520 c3         1 GDP       0.204400
     11 C2          -8.1740     2.6930     6.0820 c5         1 GDP       0.205100
     12 O8          -7.7730     2.7670     7.4510 os         1 GDP      -0.383600
     13 C3          -8.6030     4.0970     5.6910 c5         1 GDP      -0.454900
     14 O9         -10.0320     4.2020     5.7870 oh         1 GDP      -0.528800
     15 C4          -7.9220     5.0050     6.6960 c5         1 GDP       0.188100
     16 O10         -8.6700     6.1830     6.9940 oh         1 GDP      -0.707800
     17 C5          -7.8480     4.1140     7.9160 c5         1 GDP       0.234800
     18 N1          -6.6620     4.3000     8.7680 na         1 GDP      -0.189900
     19 C6          -5.3700     4.2520     8.4070 cc         1 GDP       0.482400
     20 N2          -4.5660     4.4220     9.4830 nd         1 GDP      -0.669000
     21 C7          -5.3640     4.5530    10.5610 cd         1 GDP       0.184800
     22 C8          -5.1880     4.7550    12.0120 c          1 GDP       0.645000
     23 O11         -4.0450     4.8340    12.5100 o          1 GDP      -0.616100
     24 N3          -6.2940     4.8360    12.7740 nc         1 GDP      -0.788100
     25 C9          -7.5410     4.7410    12.2640 cd         1 GDP       0.788100
     26 N4          -8.6200     4.8360    13.0800 nv         1 GDP      -0.880800
     27 N5          -7.7730     4.5540    10.9440 na         1 GDP      -0.677600
     28 C10         -6.7430     4.4620    10.0790 cc         1 GDP      -0.039000
     29 H1          -7.3410     2.0240     4.2240 h1         1 GDP      -0.006300
     30 H2          -6.6670     1.2270     5.6670 h1         1 GDP      -0.006300
     31 H3          -9.0210     2.0130     5.9870 h1         1 GDP       0.020700
     32 H4          -8.2700     4.3300     4.6790 h1         1 GDP       0.171700
     33 H5         -10.4790     3.5060     5.1400 ho         1 GDP       0.278000
     34 H6          -6.9200     5.2670     6.3550 h1         1 GDP       0.009700
     35 H7          -8.8140     6.7390     6.1150 ho         1 GDP       0.414000
     36 H8          -8.7500     4.2420     8.5150 h2         1 GDP       0.029700
     37 H9          -5.0170     4.0970     7.3880 h5         1 GDP       0.202100
     38 H10         -8.4850     4.9870    14.1310 hn         1 GDP       0.378300
     39 H11         -9.6070     4.7600    12.6730 hn         1 GDP       0.378300
     40 H12         -8.7780     4.4790    10.5850 hn         1 GDP       0.478800
@<TRIPOS>BOND
     1     1     2 1   
     2     1     3 1   
     3     1     4 1   
     4     1     5 1   
     5     5     6 1   
     6     6     7 1   
     7     6     8 1   
     8     6     9 1   
     9     9    10 1   
    10    10    11 1   
    11    11    12 1   
    12    11    13 1   
    13    12    17 1   
    14    13    14 1   
    15    13    15 1   
    16    15    16 1   
    17    15    17 1   
    18    17    18 1   
    19    18    19 1   
    20    18    28 1   
    21    19    20 2   
    22    20    21 1   
    23    21    22 1   
    24    21    28 2   
    25    22    23 2   
    26    22    24 1   
    27    24    25 2   
    28    25    26 1   
    29    25    27 1   
    30    27    28 1   
    31    10    29 1   
    32    10    30 1   
    33    11    31 1   
    34    13    32 1   
    35    14    33 1   
    36    15    34 1   
    37    16    35 1   
    38    17    36 1   
    39    19    37 1   
    40    26    38 1   
    41    26    39 1   
    42    27    40 1   
@<TRIPOS>SUBSTRUCTURE
     1 GDP         1 TEMP              0 ****  ****    0 ROOT
